<?xml version="1.0" encoding="UTF-8"?>

<net version="0.27" xmlns:xsi="http://www.w3.org/2001/XMLSchema-instance" xsi:noNamespaceSchemaLocation="http://sumo.dlr.de/xsd/net_file.xsd">

<location netOffset="0,0" convBoundary="0,0,4200,2200" origBoundary="0,0,4200,2200" projParameter="!" />

	<edge id="someWay" priority="-1">
		<!--
		<lane id="rightlane" index="0" speed="13.90" length="5828.318530718" shape="100,2100 1900,2100 1920.4487,2098.9674 1940.3069,2095.9367 1959.4738,2091.0084 1977.8489,2084.283 1995.3318,2075.8611 2011.8218,2065.8431 2027.2185,2054.3297 2041.4213,2041.4213 2054.3297,2027.2186 2065.8431,2011.8219 2075.861,1995.3319 2084.2829,1977.849 2091.0083,1959.4739 2095.9366,1940.307 2098.9673,1920.4488 2100,1900 2100,300 2101.0326,279.55124 2104.0633,259.69304 2108.9916,240.52614 2115.717,222.15104 2124.1389,204.66814 2134.1568,188.17814 2145.6702,172.78144 2158.5786,158.57864 2172.7814,145.67034 2188.1781,134.15694 2204.6682,124.13904 2222.151,115.71704 2240.5261,108.99164 2259.693,104.06334 2279.5512,101.03264 2300,100 4100,100"/>
		-->
		<lane id="rightlane" index="0" speed="13.90" length="500" shape="100,2100 600,2100 "/>
	</edge>
</net>
