<?xml version="1.0"?>

<routes>
	<vType id="type0" accel="2.6" decel="4.5" length="2.5" minGap="2.5" color="1,1,0" />
	
	<route id="route0" edges="someWay"/>
</routes>
