[General]
cmdenv-express-mode = true
cmdenv-autoflush = true
cmdenv-status-frequency = 1s
**.cmdenv-log-level = info

ned-path = .
image-path = ../../images

network = scenario

##########################################################
#            Simulation parameters                       #
##########################################################
debug-on-errors = true
print-undisposed = true

sim-time-limit = 200s

**.scalar-recording = true
**.vector-recording = true

*.playgroundSizeX = 2500m
*.playgroundSizeY = 2500m
*.playgroundSizeZ = 50m


##########################################################
# Annotation parameters                                  #
##########################################################
*.annotations.draw = true

##########################################################
# Obstacle parameters                                    #
##########################################################
#*.obstacles.obstacles = xmldoc("config.xml", "//AnalogueModel[@type='SimpleObstacleShadowing']/obstacles")

##########################################################
#            TraCIScenarioManager parameters             #
##########################################################
*.manager.updateInterval = 1s
*.manager.host = "localhost"
*.manager.port = 9999
*.manager.autoShutdown = true
*.manager.launchConfig = xmldoc("vlc.launchd.xml")

##########################################################
#                       RSU SETTINGS                     #
#                                                        #
#                                                        #
##########################################################
*.rsu[0].mobility.x = 2000
*.rsu[0].mobility.y = 2000
*.rsu[0].mobility.z = 3

*.rsu[*].applType = "TraCIDemoRSU11p"
*.rsu[*].appl.headerLength = 80 bit
*.rsu[*].appl.sendBeacons = false
*.rsu[*].appl.dataOnSch = false
*.rsu[*].appl.beaconInterval = 1s
*.rsu[*].appl.beaconUserPriority = 7
*.rsu[*].appl.dataUserPriority = 5
*.rsu[*].nic.phy80211p.antennaOffsetZ = 0 m

##########################################################
#            11p specific parameters                     #
#                                                        #
#                    NIC-Settings                        #
##########################################################
*.connectionManager.sendDirect = true
*.connectionManager.maxInterfDist = 2600m
*.connectionManager.drawMaxIntfDist = false

*.**.nic.mac1609_4.useServiceChannel = false

*.**.nic.mac1609_4.txPower = 20mW
*.**.nic.mac1609_4.bitrate = 6Mbps
*.**.nic.phy80211p.sensitivity = -89dBm

*.**.nic.phy80211p.useThermalNoise = true
*.**.nic.phy80211p.thermalNoise = -110dBm

*.**.nic.phy80211p.decider = xmldoc("config.xml")
*.**.nic.phy80211p.analogueModels = xmldoc("config.xml")
*.**.nic.phy80211p.usePropagationDelay = true

*.**.nic.phy80211p.antenna = xmldoc("antenna.xml", "/root/Antenna[@id='monopole']")
*.node[*].nic.phy80211p.antennaOffsetY = 0 m
*.node[*].nic.phy80211p.antennaOffsetZ = 1.895 m

##########################################################
#                      App Layer                         #
##########################################################
*.node[*].applType = "TraCIDemo11p"
*.node[*].appl.headerLength = 80 bit
*.node[*].appl.sendBeacons = false
*.node[*].appl.dataOnSch = false
*.node[*].appl.beaconInterval = 1s

##########################################################
#                      Mobility                          #
##########################################################
*.node[*].veinsmobility.x = 0
*.node[*].veinsmobility.y = 0
*.node[*].veinsmobility.z = 0
*.node[*0].veinsmobility.accidentCount = 0
*.node[*0].veinsmobility.accidentStart = 75s
*.node[*0].veinsmobility.accidentDuration = 50s
*.node[*].veinsmobility.hostPositionOffset = 2.5m

##########################################################
#            VLC specific parameters                     #
#                                                        #
#                    NIC-Settings                        #
##########################################################
# PhyLayerVlc
*.node[*].nicVlc**.phyVlc.collectCollisionStatistics = false
*.node[*].nicVlc**.phyVlc.debug = false
*.node[*].nicVlc**.phyVlc.txPower = 10mW	
*.node[*].nicVlc**.phyVlc.bitrate = 6Mbps	# Assuming OOK for PHY II from Table 74 of IEEE 802.15.7 Std

# Inherited from BasePhyLayer
*.node[*].nicVlc**.phyVlc.usePropagationDelay = true
*.node[*].nicVlc**.phyVlc.thermalNoise = -110dBm
*.node[*].nicVlc**.phyVlc.useThermalNoise = true
*.node[*].nicVlc**.phyVlc.analogueModels = xmldoc("config-vlc.xml")
*.node[*].nicVlc**.phyVlc.decider = xmldoc("config-vlc.xml")
*.node[*].nicVlc**.phyVlc.sensitivity = -114dBm

# LsvLightModel
*.node[*].nicVlcHead.phyVlc.radiationPatternId = "LbSedan1"
# other patterns: LbSedan2, LbSuv1, HbSedan1, HbSedan2
*.node[*].nicVlcTail.phyVlc.radiationPatternId = "DefaultRear"
*.node[*].nicVlc**.phyVlc.photoDiodeId = "PDA100A"
*.node[*].nicVlcHead.phyVlc.photoDiodeGroundOffsetZ = 0.6 m
*.node[*].nicVlcTail.phyVlc.photoDiodeGroundOffsetZ = 0.2 m


## antennaOffsetZ only applies to head and taillights
# Or compensate in the model(is only one substraction after all)
*.node[*].nicVlc**.phyVlc.interModuleDistance = 1.5 m
*.node[*].nicVlcHead.phyVlc.photoDiodeGroundOffsetZ = 0.6 m

*.node[*].nicVlcTail.phyVlc.photoDiodeGroundOffsetZ = 0.2 m

# Antenna positions for the VLC nics
*.node[*].nicVlcHead.phyVlc.antennaOffsetX = 2.5 m
*.node[*].nicVlcTail.phyVlc.antennaOffsetX = -2.5 m
*.node[*].nicVlcHead.phyVlc.antennaOffsetZ = 0.6 m
*.node[*].nicVlcTail.phyVlc.antennaOffsetZ = 0.8 m

# Direction of the VLC nics
*.node[*].nicVlcHead.direction = "head"
*.node[*].nicVlcTail.direction = "tail"

# Splitter
*.node[*].splitter.drawHeadHalfAngle = 45deg
*.node[*].splitter.drawTailHalfAngle = 60deg

[Config Sim-Options]
description = "Generic simulation settings"

experiment-label = vlc-experiment
result-dir = results/${experiment}/${configname}

warmup-period = 0
sim-time-limit = 300s
repeat = 1

# Cmdenv debugs
cmdenv-express-mode = false
cmdenv-log-prefix = "[%c%?-%l] %M "

**.application.cmdenv-log-level = trace
**.splitter.cmdenv-log-level = trace
**.phyVlc.cmdenv-log-level = trace

**.vehicleObstacles.cmdenv-log-level = off
**.manager.cmdenv-log-level = off
**.cmdenv-log-level = off

# Visual debugs
*.annotations.draw = false
*.node[*].splitter.draw = false
**.draw = false

[Config Drive-Vlc]
extends = Sim-Options
description = "A simple scenario with a straight road where cars drive"

*.manager.moduleType = "org.car2x.veins.modules.vlc.CarVlc"
*.manager.updateInterval = 0.1s

*.node[*].applType = "org.car2x.veins.modules.vlc.application.simpleVlcApp.SimpleVlcApp"
*.node[*].application.packetByteLength = 1024byte
*.node[*].application.beaconingFrequency = 1Hz


[Config Lsv-Drive-Vlc]
extends = Sim-Options
description = "A simple scenario with a straight road where cars drive"

*.node[*].nicVlc**.phyVlc.analogueModels = xmldoc("config-vlc-lsv.xml")
*.node[*].nicVlc**.phyVlc.decider = xmldoc("config-vlc-lsv.xml")
*.node[*].nicVlc**.phyVlc.sensitivity = -114dBm

*.manager.moduleType = "org.car2x.veins.modules.vlc.CarVlc"
*.manager.updateInterval = 0.1s

*.node[*].applType = "org.car2x.veins.modules.vlc.application.simpleVlcApp.SimpleVlcApp"
*.node[*].application.packetByteLength = 1024byte
*.node[*].application.beaconingFrequency = 1Hz
